<?xml version="1.0" encoding="UTF-8"?>

<!-- generated on 2022-01-13 10:38:14 by Eclipse SUMO netconvert Version 1.10.0
<configuration xmlns:xsi="http://www.w3.org/2001/XMLSchema-instance" xsi:noNamespaceSchemaLocation="http://sumo.dlr.de/xsd/netconvertConfiguration.xsd">

    <input>
        <osm-files value="map.osm"/>
    </input>

    <output>
        <output-file value="map.net.xml"/>
    </output>

    <projection>
        <proj.utm value="true"/>
    </projection>

    <processing>
        <lefthand value="true"/>
    </processing>

    <report>
        <aggregate-warnings value="5"/>
    </report>

</configuration>
-->

<net version="1.9" junctionCornerDetail="5" lefthand="true" limitTurnSpeed="5.50" xmlns:xsi="http://www.w3.org/2001/XMLSchema-instance" xsi:noNamespaceSchemaLocation="http://sumo.dlr.de/xsd/net_file.xsd">

    <location netOffset="-694599.23,-5708992.82" convBoundary="0.00,-0.00,10440.61,3049.56" origBoundary="-0.195671,51.497228,-0.044637,51.526629" projParameter="+proj=utm +zone=30 +ellps=WGS84 +datum=WGS84 +units=m +no_defs"/>

    <type id="highway.bridleway" priority="1" numLanes="1" speed="2.78" allow="pedestrian" oneway="1" width="2.00"/>
    <type id="highway.bus_guideway" priority="1" numLanes="1" speed="27.78" allow="bus" oneway="1"/>
    <type id="highway.cycleway" priority="1" numLanes="1" speed="8.33" allow="bicycle" oneway="0" width="1.00"/>
    <type id="highway.footway" priority="1" numLanes="1" speed="2.78" allow="pedestrian" oneway="1" width="2.00"/>
    <type id="highway.ford" priority="1" numLanes="1" speed="2.78" allow="army" oneway="0"/>
    <type id="highway.living_street" priority="2" numLanes="1" speed="2.78" disallow="tram rail_urban rail rail_electric rail_fast ship" oneway="0"/>
    <type id="highway.motorway" priority="14" numLanes="2" speed="39.44" allow="private emergency authority army vip passenger hov taxi bus coach delivery truck trailer motorcycle evehicle custom1 custom2" oneway="1"/>
    <type id="highway.motorway_link" priority="9" numLanes="1" speed="22.22" allow="private emergency authority army vip passenger hov taxi bus coach delivery truck trailer motorcycle evehicle custom1 custom2" oneway="1"/>
    <type id="highway.path" priority="1" numLanes="1" speed="2.78" allow="pedestrian bicycle" oneway="0" width="2.00"/>
    <type id="highway.pedestrian" priority="1" numLanes="1" speed="2.78" allow="pedestrian" oneway="1" width="2.00"/>
    <type id="highway.primary" priority="12" numLanes="2" speed="27.78" disallow="tram rail_urban rail rail_electric rail_fast ship" oneway="0"/>
    <type id="highway.primary_link" priority="7" numLanes="1" speed="22.22" disallow="tram rail_urban rail rail_electric rail_fast ship" oneway="0"/>
    <type id="highway.raceway" priority="15" numLanes="2" speed="83.33" allow="vip" oneway="0"/>
    <type id="highway.residential" priority="3" numLanes="1" speed="13.89" disallow="tram rail_urban rail rail_electric rail_fast ship" oneway="0"/>
    <type id="highway.secondary" priority="11" numLanes="1" speed="27.78" disallow="tram rail_urban rail rail_electric rail_fast ship" oneway="0"/>
    <type id="highway.secondary_link" priority="6" numLanes="1" speed="22.22" disallow="tram rail_urban rail rail_electric rail_fast ship" oneway="0"/>
    <type id="highway.service" priority="1" numLanes="1" speed="5.56" allow="pedestrian delivery bicycle" oneway="0"/>
    <type id="highway.stairs" priority="1" numLanes="1" speed="1.39" allow="pedestrian" oneway="1" width="2.00"/>
    <type id="highway.step" priority="1" numLanes="1" speed="1.39" allow="pedestrian" oneway="1" width="2.00"/>
    <type id="highway.steps" priority="1" numLanes="1" speed="1.39" allow="pedestrian" oneway="1" width="2.00"/>
    <type id="highway.tertiary" priority="10" numLanes="1" speed="22.22" disallow="tram rail_urban rail rail_electric rail_fast ship" oneway="0"/>
    <type id="highway.tertiary_link" priority="5" numLanes="1" speed="22.22" disallow="tram rail_urban rail rail_electric rail_fast ship" oneway="0"/>
    <type id="highway.track" priority="1" numLanes="1" speed="5.56" allow="pedestrian motorcycle moped bicycle" oneway="0"/>
    <type id="highway.trunk" priority="13" numLanes="2" speed="27.78" disallow="pedestrian bicycle tram rail_urban rail rail_electric rail_fast ship" oneway="0"/>
    <type id="highway.trunk_link" priority="8" numLanes="1" speed="22.22" disallow="pedestrian bicycle tram rail_urban rail rail_electric rail_fast ship" oneway="0"/>
    <type id="highway.unclassified" priority="4" numLanes="1" speed="13.89" disallow="tram rail_urban rail rail_electric rail_fast ship" oneway="0"/>
    <type id="highway.unsurfaced" priority="1" numLanes="1" speed="8.33" disallow="tram rail_urban rail rail_electric rail_fast ship" oneway="0"/>
    <type id="railway.highspeed" priority="21" numLanes="1" speed="69.44" allow="rail_fast" oneway="1"/>
    <type id="railway.light_rail" priority="19" numLanes="1" speed="27.78" allow="rail_urban" oneway="1"/>
    <type id="railway.preserved" priority="16" numLanes="1" speed="27.78" allow="rail" oneway="1"/>
    <type id="railway.rail" priority="20" numLanes="1" speed="44.44" allow="rail" oneway="1"/>
    <type id="railway.subway" priority="18" numLanes="1" speed="27.78" allow="rail_urban" oneway="1"/>
    <type id="railway.tram" priority="17" numLanes="1" speed="13.89" allow="tram" oneway="1"/>

    <edge id=":102963892_0" function="internal">
        <lane id=":102963892_0_0" index="0" allow="bicycle" speed="8.33" length="9.00" width="1.00" shape="2778.07,1088.20 2773.60,1096.01"/>
    </edge>
    <edge id=":102963892_1" function="internal">
        <lane id=":102963892_1_0" index="0" allow="bicycle" speed="2.04" length="1.46" width="1.00" shape="2778.07,1088.20 2778.10,1088.65 2778.26,1088.88 2778.53,1088.90 2778.94,1088.70"/>
    </edge>
    <edge id=":102963892_2" function="internal">
        <lane id=":102963892_2_0" index="0" allow="bicycle" speed="8.33" length="9.00" width="1.00" shape="2774.47,1096.51 2778.94,1088.70"/>
    </edge>
    <edge id=":102963892_3" function="internal">
        <lane id=":102963892_3_0" index="0" allow="bicycle" speed="2.04" length="1.46" width="1.00" shape="2774.47,1096.51 2774.44,1096.06 2774.29,1095.83 2774.01,1095.81 2773.60,1096.01"/>
    </edge>
    <edge id=":102965405_0" function="internal">
        <lane id=":102965405_0_0" index="0" allow="bicycle" speed="2.04" length="1.46" width="1.00" shape="2708.03,1208.54 2708.05,1208.99 2708.20,1209.23 2708.48,1209.26 2708.89,1209.07"/>
    </edge>
    <edge id=":102965768_0" function="internal">
        <lane id=":102965768_0_0" index="0" allow="bicycle" speed="8.33" length="7.82" width="1.00" shape="2733.35,1165.97 2729.47,1172.75"/>
    </edge>
    <edge id=":102965768_1" function="internal">
        <lane id=":102965768_1_0" index="0" allow="bicycle" speed="2.04" length="0.73" width="1.00" shape="2733.35,1165.97 2733.38,1166.42 2733.53,1166.65"/>
    </edge>
    <edge id=":102965768_4" function="internal">
        <lane id=":102965768_4_0" index="0" allow="bicycle" speed="2.04" length="0.73" width="1.00" shape="2733.53,1166.65 2733.81,1166.67 2734.21,1166.47"/>
    </edge>
    <edge id=":102965768_2" function="internal">
        <lane id=":102965768_2_0" index="0" allow="bicycle" speed="8.33" length="7.81" width="1.00" shape="2730.34,1173.24 2734.21,1166.47"/>
    </edge>
    <edge id=":102965768_3" function="internal">
        <lane id=":102965768_3_0" index="0" allow="bicycle" speed="2.04" length="0.73" width="1.00" shape="2730.34,1173.24 2730.30,1172.79 2730.15,1172.56"/>
    </edge>
    <edge id=":102965768_5" function="internal">
        <lane id=":102965768_5_0" index="0" allow="bicycle" speed="2.04" length="0.73" width="1.00" shape="2730.15,1172.56 2729.87,1172.55 2729.47,1172.75"/>
    </edge>
    <edge id=":108054_0" function="internal">
        <lane id=":108054_0_0" index="0" disallow="tram rail_urban rail rail_electric rail_fast ship" speed="6.01" length="7.32" shape="3736.77,1860.84 3735.44,1862.82 3734.04,1864.01 3732.58,1864.41 3731.05,1864.03"/>
    </edge>
    <edge id=":108054_1" function="internal">
        <lane id=":108054_1_0" index="0" disallow="tram rail_urban rail rail_electric rail_fast ship" speed="8.94" length="10.50" shape="3736.77,1860.84 3731.81,1870.15"/>
        <lane id=":108054_1_1" index="1" disallow="tram rail_urban rail rail_electric rail_fast ship" speed="8.94" length="10.50" shape="3739.58,1862.38 3734.65,1871.62"/>
    </edge>
    <edge id=":108054_3" function="internal">
        <lane id=":108054_3_0" index="0" disallow="pedestrian tram rail_urban rail rail_electric rail_fast ship" speed="8.94" length="9.81" shape="3739.68,1868.70 3731.05,1864.03"/>
    </edge>
    <edge id=":108054_4" function="internal">
        <lane id=":108054_4_0" index="0" disallow="pedestrian tram rail_urban rail rail_electric rail_fast ship" speed="5.57" length="6.59" shape="3739.68,1868.70 3738.36,1868.29 3737.08,1868.64 3735.84,1869.74 3734.65,1871.62"/>
    </edge>
    <edge id=":108055_0" function="internal">
        <lane id=":108055_0_0" index="0" disallow="tram rail_urban rail rail_electric rail_fast ship" speed="6.37" length="9.56" shape="3800.39,1765.38 3798.80,1767.36 3796.93,1768.19 3794.78,1767.90 3792.36,1766.47"/>
    </edge>
    <edge id=":108055_1" function="internal">
        <lane id=":108055_1_0" index="0" disallow="tram rail_urban rail rail_electric rail_fast ship" speed="8.94" length="14.68" shape="3800.39,1765.38 3798.93,1768.43 3797.82,1771.34 3796.40,1774.57 3793.98,1778.55"/>
    </edge>
    <edge id=":108055_2" function="internal">
        <lane id=":108055_2_0" index="0" disallow="tram rail_urban rail rail_electric rail_fast ship" speed="7.05" length="10.91" shape="3800.39,1765.38 3798.65,1768.95 3797.93,1771.79 3798.22,1773.89 3799.53,1775.25"/>
    </edge>
    <edge id=":108055_3" function="internal">
        <lane id=":108055_3_0" index="0" disallow="tram rail_urban rail rail_electric rail_fast ship" speed="8.94" length="10.72" shape="3801.18,1772.51 3798.51,1770.98 3796.61,1769.74 3794.78,1768.37 3792.36,1766.47"/>
    </edge>
    <edge id=":108055_4" function="internal">
        <lane id=":108055_4_0" index="0" disallow="tram rail_urban rail rail_electric rail_fast ship" speed="7.04" length="9.88" shape="3801.18,1772.51 3799.92,1772.44 3798.30,1773.42 3796.32,1775.46 3793.98,1778.55"/>
    </edge>
    <edge id=":108055_5" function="internal">
        <lane id=":108055_5_0" index="0" disallow="tram rail_urban rail rail_electric rail_fast ship" speed="3.65" length="4.68" shape="3801.18,1772.51 3799.74,1772.58 3798.98,1773.05 3798.91,1773.95 3799.53,1775.25"/>
    </edge>
    <edge id=":108055_6" function="internal">
        <lane id=":108055_6_0" index="0" disallow="tram rail_urban rail rail_electric rail_fast ship" speed="6.55" length="8.78" shape="3790.39,1768.99 3791.99,1770.67 3792.69,1772.53 3792.47,1774.54 3791.35,1776.72"/>
    </edge>
    <edge id=":108055_7" function="internal">
        <lane id=":108055_7_0" index="0" disallow="tram rail_urban rail rail_electric rail_fast ship" speed="8.94" length="11.10" shape="3790.39,1768.99 3792.87,1770.93 3794.80,1772.37 3796.81,1773.69 3799.53,1775.25"/>
    </edge>
    <edge id=":108055_8" function="internal">
        <lane id=":108055_8_0" index="0" disallow="tram rail_urban rail rail_electric rail_fast ship" speed="3.65" length="4.67" shape="3790.39,1768.99 3791.83,1769.10 3792.64,1768.71 3792.81,1767.83 3792.36,1766.47"/>
    </edge>
    <edge id=":108058_0" function="internal">
        <lane id=":108058_0_0" index="0" disallow="tram rail_urban rail rail_electric rail_fast ship" speed="7.95" length="10.61" shape="3982.63,1480.14 3984.42,1477.70 3986.47,1476.12 3988.78,1475.39 3991.35,1475.53"/>
    </edge>
    <edge id=":108058_1" function="internal">
        <lane id=":108058_1_0" index="0" disallow="tram rail_urban rail rail_electric rail_fast ship" speed="8.94" length="12.08" shape="3982.63,1480.14 3984.38,1477.04 3985.61,1474.92 3987.01,1472.93 3989.29,1470.21"/>
        <lane id=":108058_1_1" index="1" disallow="tram rail_urban rail rail_electric rail_fast ship" speed="8.94" length="12.08" shape="3979.93,1478.42 3981.70,1475.27 3982.95,1473.12 3984.37,1471.11 3986.69,1468.34"/>
    </edge>
    <edge id=":108058_3" function="internal">
        <lane id=":108058_3_0" index="0" disallow="tram rail_urban rail rail_electric rail_fast ship" speed="8.94" length="10.53" shape="3980.99,1473.70 3984.01,1474.08 3986.20,1474.44 3988.37,1474.89 3991.35,1475.53"/>
    </edge>
    <edge id=":108058_4" function="internal">
        <lane id=":108058_4_0" index="0" disallow="tram rail_urban rail rail_electric rail_fast ship" speed="8.13" length="7.88" shape="3980.99,1473.70 3982.20,1473.01 3983.96,1471.34 3985.66,1469.51 3986.69,1468.34"/>
    </edge>
    <edge id=":108059_0" function="internal">
        <lane id=":108059_0_0" index="0" disallow="tram rail_urban rail rail_electric rail_fast ship" speed="3.90" length="2.95" shape="4037.05,1490.84 4037.75,1491.30 4038.09,1491.84 4038.07,1492.49 4037.69,1493.22"/>
    </edge>
    <edge id=":108070_0" function="internal">
        <lane id=":108070_0_0" index="0" disallow="tram rail_urban rail rail_electric rail_fast ship" speed="6.48" length="9.03" shape="3978.04,1661.54 3976.30,1663.31 3974.42,1664.10 3972.39,1663.89 3970.22,1662.70"/>
    </edge>
    <edge id=":108070_1" function="internal">
        <lane id=":108070_1_0" index="0" disallow="tram rail_urban rail rail_electric rail_fast ship" speed="8.94" length="11.21" shape="3979.21,1669.40 3970.22,1662.70"/>
    </edge>
    <edge id=":108072_0" function="internal">
        <lane id=":108072_0_0" index="0" disallow="tram rail_urban rail rail_electric rail_fast ship" speed="6.11" length="6.76" shape="4008.42,1771.90 4009.07,1770.21 4009.08,1768.64 4008.47,1767.19 4007.23,1765.87"/>
    </edge>
    <edge id=":108072_1" function="internal">
        <lane id=":108072_1_0" index="0" disallow="tram rail_urban rail rail_electric rail_fast ship" speed="3.92" length="2.25" shape="4005.22,1768.36 4005.63,1768.80 4005.83,1769.28 4005.83,1769.80 4005.61,1770.37"/>
    </edge>
    <edge id=":108085_0" function="internal">
        <lane id=":108085_0_0" index="0" disallow="tram rail_urban rail rail_electric rail_fast ship" speed="8.94" length="12.79" shape="3823.12,1175.03 3821.17,1178.22 3820.90,1181.18 3820.91,1184.07 3819.81,1187.06"/>
    </edge>
    <edge id=":108085_1" function="internal">
        <lane id=":108085_1_0" index="0" disallow="tram rail_urban rail rail_electric rail_fast ship" speed="3.65" length="4.67" shape="3825.42,1177.26 3825.15,1178.68 3825.45,1179.52 3826.30,1179.79 3827.71,1179.49"/>
    </edge>
    <edge id=":108085_2" function="internal">
        <lane id=":108085_2_0" index="0" disallow="tram rail_urban rail rail_electric rail_fast ship" speed="7.20" length="11.16" shape="3816.34,1177.77 3819.04,1180.11 3820.52,1182.44 3820.78,1184.75 3819.81,1187.06"/>
    </edge>
    <edge id=":108085_3" function="internal">
        <lane id=":108085_3_0" index="0" disallow="tram rail_urban rail rail_electric rail_fast ship" speed="8.94" length="19.00" shape="3816.34,1177.77 3831.81,1188.78"/>
        <lane id=":108085_3_1" index="1" disallow="tram rail_urban rail rail_electric rail_fast ship" speed="8.94" length="19.00" shape="3818.19,1175.16 3833.67,1186.18"/>
    </edge>
    <edge id=":108085_5" function="internal">
        <lane id=":108085_5_0" index="0" disallow="tram rail_urban rail rail_electric rail_fast ship" speed="8.34" length="13.69" shape="3818.19,1175.16 3822.97,1178.43 3826.53,1180.61 3828.88,1181.71 3830.01,1181.71"/>
        <lane id=":108085_5_1" index="1" disallow="tram rail_urban rail rail_electric rail_fast ship" speed="7.47" length="10.78" shape="3818.19,1175.16 3821.83,1177.59 3824.64,1179.12 3826.60,1179.75 3827.71,1179.49"/>
    </edge>
    <edge id=":108239_0" function="internal">
        <lane id=":108239_0_0" index="0" disallow="tram rail_urban rail rail_electric rail_fast ship" speed="6.71" length="6.75" shape="3357.23,1925.25 3357.98,1925.07 3359.01,1924.23 3360.32,1922.74 3361.92,1920.60"/>
    </edge>
    <edge id=":108239_1" function="internal">
        <lane id=":108239_1_0" index="0" disallow="tram rail_urban rail rail_electric rail_fast ship" speed="3.65" length="4.67" shape="3357.23,1925.25 3358.58,1924.74 3359.15,1924.04 3358.93,1923.18 3357.94,1922.13"/>
    </edge>
    <edge id=":108244_0" function="internal">
        <lane id=":108244_0_0" index="0" disallow="tram rail_urban rail rail_electric rail_fast ship" speed="8.94" length="5.12" shape="3465.86,1419.92 3469.25,1416.07"/>
    </edge>
    <edge id=":108245_0" function="internal">
        <lane id=":108245_0_0" index="0" disallow="tram rail_urban rail rail_electric rail_fast ship" speed="7.17" length="9.94" shape="3632.46,1548.72 3630.64,1546.57 3629.79,1544.38 3629.91,1542.14 3631.00,1539.85"/>
    </edge>
    <edge id=":108245_1" function="internal">
        <lane id=":108245_1_0" index="0" disallow="tram rail_urban rail rail_electric rail_fast ship" speed="8.94" length="11.87" shape="3632.46,1548.72 3630.04,1546.53 3628.00,1544.80 3625.87,1543.17 3623.21,1541.29"/>
    </edge>
    <edge id=":108245_2" function="internal">
        <lane id=":108245_2_0" index="0" disallow="tram rail_urban rail rail_electric rail_fast ship" speed="3.65" length="2.34" shape="3632.46,1548.72 3631.03,1548.49 3630.20,1548.81"/>
    </edge>
    <edge id=":108245_7" function="internal">
        <lane id=":108245_7_0" index="0" disallow="tram rail_urban rail rail_electric rail_fast ship" speed="3.65" length="2.34" shape="3630.20,1548.81 3629.95,1549.67 3630.29,1551.07"/>
    </edge>
    <edge id=":108245_3" function="internal">
        <lane id=":108245_3_0" index="0" disallow="tram rail_urban rail rail_electric rail_fast ship" speed="6.25" length="9.05" shape="3622.65,1551.88 3624.39,1550.05 3626.24,1549.30 3628.21,1549.64 3630.29,1551.07"/>
    </edge>
    <edge id=":108245_4" function="internal">
        <lane id=":108245_4_0" index="0" disallow="tram rail_urban rail rail_electric rail_fast ship" speed="8.94" length="14.64" shape="3622.65,1551.88 3631.00,1539.85"/>
    </edge>
    <edge id=":108245_5" function="internal">
        <lane id=":108245_5_0" index="0" disallow="tram rail_urban rail rail_electric rail_fast ship" speed="7.36" length="11.93" shape="3622.65,1551.88 3624.64,1548.45 3625.40,1545.55 3624.92,1543.16 3623.21,1541.29"/>
    </edge>
    <edge id=":108245_6" function="internal">
        <lane id=":108245_6_0" index="0" disallow="tram rail_urban rail rail_electric rail_fast ship" speed="8.94" length="11.42" shape="3621.39,1543.93 3624.00,1545.76 3626.00,1547.29 3627.93,1548.92 3630.29,1551.07"/>
    </edge>
    <edge id=":108247_0" function="internal">
        <lane id=":108247_0_0" index="0" disallow="tram rail_urban rail rail_electric rail_fast ship" speed="6.51" length="8.89" shape="3669.15,1486.02 3670.82,1484.26 3672.66,1483.44 3674.67,1483.56 3676.86,1484.62"/>
    </edge>
    <edge id=":108248_0" function="internal">
        <lane id=":108248_0_0" index="0" disallow="tram rail_urban rail rail_electric rail_fast ship" speed="6.51" length="9.01" shape="3653.37,1429.17 3651.70,1430.98 3649.85,1431.83 3647.81,1431.71 3645.60,1430.62"/>
    </edge>
    <edge id=":108248_1" function="internal">
        <lane id=":108248_1_0" index="0" disallow="tram rail_urban rail rail_electric rail_fast ship" speed="6.52" length="9.01" shape="3653.37,1429.17 3652.27,1431.38 3652.14,1433.42 3652.97,1435.28 3654.77,1436.96"/>
    </edge>
    <edge id=":108249_0" function="internal">
        <lane id=":108249_0_0" index="0" disallow="tram rail_urban rail rail_electric rail_fast ship" speed="6.53" length="8.30" shape="3683.38,1457.04 3685.37,1458.06 3687.27,1458.26 3689.07,1457.63 3690.78,1456.18"/>
    </edge>
    <edge id=":108252_0" function="internal">
        <lane id=":108252_0_0" index="0" disallow="tram rail_urban rail rail_electric rail_fast ship" speed="5.87" length="8.57" shape="3545.54,1672.94 3543.23,1671.74 3542.03,1670.26 3541.93,1668.49 3542.93,1666.43"/>
    </edge>
    <edge id=":108252_1" function="internal">
        <lane id=":108252_1_0" index="0" disallow="tram rail_urban rail rail_electric rail_fast ship" speed="8.94" length="12.17" shape="3545.54,1672.94 3534.18,1668.57"/>
    </edge>
    <edge id=":108252_2" function="internal">
        <lane id=":108252_2_0" index="0" disallow="tram rail_urban rail rail_electric rail_fast ship" speed="8.94" length="11.48" shape="3536.29,1675.79 3542.93,1666.43"/>
    </edge>
    <edge id=":108252_3" function="internal">
        <lane id=":108252_3_0" index="0" disallow="tram rail_urban rail rail_electric rail_fast ship" speed="6.10" length="9.06" shape="3536.29,1675.79 3537.44,1673.54 3537.48,1671.58 3536.39,1669.93 3534.18,1668.57"/>
    </edge>
    <edge id=":108253_0" function="internal">
        <lane id=":108253_0_0" index="0" allow="pedestrian delivery bicycle" speed="4.92" length="5.14" shape="3500.96,1647.86 3500.43,1649.19 3499.61,1649.98 3498.50,1650.23 3497.09,1649.93"/>
    </edge>
    <edge id=":108253_1" function="internal">
        <lane id=":108253_1_0" index="0" disallow="tram rail_urban rail rail_electric rail_fast ship" speed="8.94" length="6.05" shape="3502.64,1652.33 3501.04,1651.52 3499.92,1651.00 3498.78,1650.55 3497.09,1649.93"/>
    </edge>
    <edge id=":108256_0" function="internal">
        <lane id=":108256_0_0" index="0" disallow="tram rail_urban rail rail_electric rail_fast ship" speed="8.94" length="5.30" shape="3397.39,1743.37 3392.43,1741.50"/>
    </edge>
    <edge id=":108256_1" function="internal">
        <lane id=":108256_1_0" index="0" disallow="tram rail_urban rail rail_electric rail_fast ship" speed="3.65" length="2.34" shape="3397.39,1743.37 3395.99,1743.72 3395.34,1744.33"/>
    </edge>
    <edge id=":108256_4" function="internal">
        <lane id=":108256_4_0" index="0" disallow="tram rail_urban rail rail_electric rail_fast ship" speed="3.65" length="2.34" shape="3395.34,1744.33 3395.45,1745.22 3396.30,1746.38"/>
    </edge>
    <edge id=":108256_2" function="internal">
        <lane id=":108256_2_0" index="0" disallow="tram rail_urban rail rail_electric rail_fast ship" speed="8.94" length="5.36" shape="3391.29,1744.49 3396.30,1746.38"/>
    </edge>
    <edge id=":108256_3" function="internal">
        <lane id=":108256_3_0" index="0" disallow="tram rail_urban rail rail_electric rail_fast ship" speed="3.65" length="2.34" shape="3391.29,1744.49 3392.69,1744.17 3393.35,1743.57"/>
    </edge>
    <edge id=":108256_5" function="internal">
        <lane id=":108256_5_0" index="0" disallow="tram rail_urban rail rail_electric rail_fast ship" speed="3.65" length="2.34" shape="3393.35,1743.57 3393.27,1742.68 3392.43,1741.50"/>
    </edge>
    <edge id=":108257_0" function="internal">
        <lane id=":108257_0_0" index="0" disallow="tram rail_urban rail rail_electric rail_fast ship" speed="8.94" length="14.43" shape="3205.73,1677.02 3191.98,1672.62"/>
    </edge>
    <edge id=":108257_1" function="internal">
        <lane id=":108257_1_0" index="0" disallow="tram rail_urban rail rail_electric rail_fast ship" speed="8.19" length="5.85" shape="3205.73,1677.02 3201.97,1676.39 3199.99,1676.86"/>
    </edge>
    <edge id=":108257_2" function="internal">
        <lane id=":108257_2_0" index="0" disallow="tram rail_urban rail rail_electric rail_fast ship" speed="3.65" length="2.34" shape="3205.73,1677.02 3204.34,1677.41 3203.71,1678.05"/>
    </edge>
    <edge id=":108257_9" function="internal">
        <lane id=":108257_9_0" index="0" disallow="tram rail_urban rail rail_electric rail_fast ship" speed="8.19" length="8.44" shape="3199.99,1676.86 3198.83,1677.13 3196.31,1679.24 3194.39,1682.71"/>
    </edge>
    <edge id=":108257_10" function="internal">
        <lane id=":108257_10_0" index="0" disallow="tram rail_urban rail rail_electric rail_fast ship" speed="3.65" length="2.34" shape="3203.71,1678.05 3203.85,1678.93 3204.75,1680.06"/>
    </edge>
    <edge id=":108257_3" function="internal">
        <lane id=":108257_3_0" index="0" disallow="tram rail_urban rail rail_electric rail_fast ship" speed="6.74" length="9.34" shape="3197.38,1683.86 3198.64,1681.57 3200.28,1680.17 3202.32,1679.66 3204.75,1680.06"/>
    </edge>
    <edge id=":108257_4" function="internal">
        <lane id=":108257_4_0" index="0" disallow="tram rail_urban rail rail_electric rail_fast ship" speed="7.90" length="14.43" shape="3197.38,1683.86 3198.27,1679.98 3197.67,1676.81 3195.57,1674.35 3191.98,1672.62"/>
    </edge>
    <edge id=":108257_5" function="internal">
        <lane id=":108257_5_0" index="0" disallow="tram rail_urban rail rail_electric rail_fast ship" speed="3.65" length="4.67" shape="3197.38,1683.86 3197.07,1682.46 3196.46,1681.79 3195.57,1681.88 3194.39,1682.71"/>
    </edge>
    <edge id=":108257_6" function="internal">
        <lane id=":108257_6_0" index="0" disallow="tram rail_urban rail rail_electric rail_fast ship" speed="6.38" length="9.04" shape="3191.01,1675.67 3193.26,1676.75 3194.58,1678.29 3194.95,1680.28 3194.39,1682.71"/>
    </edge>
    <edge id=":108257_7" function="internal">
        <lane id=":108257_7_0" index="0" disallow="tram rail_urban rail rail_electric rail_fast ship" speed="8.94" length="14.42" shape="3191.01,1675.67 3204.75,1680.06"/>
    </edge>
    <edge id=":108257_8" function="internal">
        <lane id=":108257_8_0" index="0" disallow="tram rail_urban rail rail_electric rail_fast ship" speed="3.65" length="2.34" shape="3191.01,1675.67 3192.40,1675.27 3193.02,1674.63"/>
    </edge>
    <edge id=":108257_11" function="internal">
        <lane id=":108257_11_0" index="0" disallow="tram rail_urban rail rail_electric rail_fast ship" speed="3.65" length="2.34" shape="3193.02,1674.63 3192.89,1673.74 3191.98,1672.62"/>
    </edge>
    <edge id=":108258_0" function="internal">
        <lane id=":108258_0_0" index="0" disallow="tram rail_urban rail rail_electric rail_fast ship" speed="6.51" length="8.92" shape="3158.16,1791.12 3158.60,1788.72 3158.17,1786.74 3156.88,1785.19 3154.72,1784.06"/>
    </edge>
    <edge id=":108259_0" function="internal">
        <lane id=":108259_0_0" index="0" disallow="tram rail_urban rail rail_electric rail_fast ship" speed="8.94" length="11.20" shape="3089.00,1754.80 3085.31,1765.38"/>
    </edge>
    <edge id=":108259_1" function="internal">
        <lane id=":108259_1_0" index="0" disallow="tram rail_urban rail rail_electric rail_fast ship" speed="6.49" length="9.03" shape="3092.45,1761.96 3090.02,1761.47 3088.02,1761.87 3086.45,1763.18 3085.31,1765.38"/>
    </edge>
    <edge id=":108260_0" function="internal">
        <lane id=":108260_0_0" index="0" disallow="tram rail_urban rail rail_electric rail_fast ship" speed="6.49" length="9.05" shape="3132.03,1770.10 3130.90,1772.30 3129.33,1773.61 3127.33,1774.01 3124.89,1773.52"/>
    </edge>
    <edge id=":108260_1" function="internal">
        <lane id=":108260_1_0" index="0" disallow="tram rail_urban rail rail_electric rail_fast ship" speed="8.94" length="11.26" shape="3132.03,1770.10 3128.18,1780.67"/>
    </edge>
    <edge id=":108260_2" function="internal">
        <lane id=":108260_2_0" index="0" disallow="tram rail_urban rail rail_electric rail_fast ship" speed="8.94" length="11.23" shape="3135.47,1777.27 3124.89,1773.52"/>
    </edge>
    <edge id=":108260_3" function="internal">
        <lane id=":108260_3_0" index="0" disallow="tram rail_urban rail rail_electric rail_fast ship" speed="6.60" length="9.12" shape="3135.47,1777.27 3133.04,1776.78 3131.01,1777.19 3129.39,1778.48 3128.18,1780.67"/>
    </edge>
    <edge id=":108267_0" function="internal">
        <lane id=":108267_0_0" index="0" disallow="tram rail_urban rail rail_electric rail_fast ship" speed="6.53" length="8.98" shape="3764.49,1267.61 3762.84,1269.41 3760.99,1270.25 3758.96,1270.15 3756.73,1269.08"/>
    </edge>
    <edge id=":108267_1" function="internal">
        <lane id=":108267_1_0" index="0" disallow="tram rail_urban rail rail_electric rail_fast ship" speed="8.94" length="11.08" shape="3764.49,1267.61 3758.22,1276.75"/>
    </edge>
    <edge id=":108267_2" function="internal">
        <lane id=":108267_2_0" index="0" disallow="tram rail_urban rail rail_electric rail_fast ship" speed="8.94" length="11.12" shape="3765.91,1275.35 3756.73,1269.08"/>
    </edge>
    <edge id=":108267_3" function="internal">
        <lane id=":108267_3_0" index="0" disallow="tram rail_urban rail rail_electric rail_fast ship" speed="6.45" length="8.94" shape="3765.91,1275.35 3763.73,1274.24 3761.72,1274.10 3759.88,1274.94 3758.22,1276.75"/>
    </edge>
    <edge id=":109586_0" function="internal">
        <lane id=":109586_0_0" index="0" disallow="tram rail_urban rail rail_electric rail_fast ship" speed="6.56" length="8.67" shape="3185.83,995.05 3184.85,997.22 3183.43,998.62 3181.55,999.23 3179.24,999.07"/>
    </edge>
    <edge id=":109586_1" function="internal">
        <lane id=":109586_1_0" index="0" disallow="tram rail_urban rail rail_electric rail_fast ship" speed="7.16" length="11.31" shape="3185.83,995.05 3185.10,998.72 3185.32,1001.56 3186.49,1003.54 3188.62,1004.68"/>
    </edge>
    <edge id=":109586_2" function="internal">
        <lane id=":109586_2_0" index="0" disallow="tram rail_urban rail rail_electric rail_fast ship" speed="8.94" length="10.54" shape="3189.47,1001.60 3179.24,999.07"/>
    </edge>
    <edge id=":109586_3" function="internal">
        <lane id=":109586_3_0" index="0" disallow="tram rail_urban rail rail_electric rail_fast ship" speed="3.65" length="2.34" shape="3189.47,1001.60 3188.10,1002.05 3187.50,1002.71"/>
    </edge>
    <edge id=":109586_6" function="internal">