<?xml version="1.0" encoding="UTF-8"?>

<configuration>
    
    <input>
        <net-file value="map.net.xml"/>
        <route-files value="routes.rou.xml"/>
    </input>
    
    <time>
        <begin value="0" />
        <step-length value="1.0" />
    </time>
    
    <time-to-teleport value="60"/>
    
</configuration>
